#compdef mf2k
# Documentation: https://water.usgs.gov/ogw/modflow-2000/
# MODFLOW-2000 ground-water flow process; reads a name file argument

local ret=1

_arguments -s \
  '1:name file:_files -g "*.nam"' && ret=0

return ret
