#compdef mf2005
# Documentation: https://water.usgs.gov/ogw/modflow/MODFLOW-2005-Guide/name_file.htm
# MODFLOW-2005 ground-water flow model; reads a name file argument

local ret=1

_arguments -s \
  '1:name file:_files -g "*.nam"' && ret=0

return ret
