#compdef mfnwt
# Documentation: https://water.usgs.gov/ogw/modflow-nwt/
# MODFLOW-NWT Newton formulation for MODFLOW-2005; reads a name file argument

local ret=1

_arguments -s \
  '1:name file:_files -g "*.(nam|mfn)"' && ret=0

return ret
