#compdef mp7
# Documentation: https://water.usgs.gov/water-resources/software/MODPATH/readme.txt
# MODPATH 7 particle-tracking model; reads a MODPATH simulation file argument

local ret=1

_arguments -s \
  '1:simulation file:_files -g "*.mpsim"' && ret=0

return ret
